8

C         -5.48674        1.15108       -0.00000
C         -4.01007        1.50908       -0.00000
H         -5.61126        0.06482        0.19365
H         -5.93448        1.39800       -0.98566
H         -6.01350        1.72396        0.79201
H         -3.48330        0.93619       -0.79201
H         -3.56233        1.26216        0.98566
H         -3.88554        2.59534       -0.19365
