21

C         -3.81501        1.04119       -0.00018
C         -3.72590       -0.35916        0.00029
C         -2.45751       -0.97251       -0.00218
C         -1.28698       -0.18837       -0.00502
C         -1.39049        1.21013       -0.00542
C         -2.65088        1.81910       -0.00304
H         -2.72582        2.89887       -0.00342
H         -4.78055        1.53266        0.00163
H         -0.50150        1.82934       -0.00759
C         -0.04329       -0.83362       -0.00740
N          0.02003       -2.19304       -0.00704
H          0.87570       -0.26097       -0.00956
C         -2.36666       -2.37688       -0.00181
C         -1.09710       -2.97020       -0.00436
H         -0.99402       -4.04760       -0.00421
C         -4.87260       -1.16291        0.00318
C         -4.73754       -2.55528        0.00350
N         -3.50311       -3.13195        0.00100
H         -3.43992       -4.17542        0.00130
H         -5.86187       -0.72124        0.00517
H         -5.62327       -3.17805        0.00575
